Version 4
SHEET 1 880 1432
WIRE -64 -304 -240 -304
WIRE 112 -304 32 -304
WIRE -64 -272 -64 -304
WIRE 32 -272 32 -304
WIRE 80 -208 -16 -208
WIRE -240 -128 -240 -304
WIRE -64 -128 -240 -128
WIRE 112 -128 112 -304
WIRE 112 -128 32 -128
WIRE 464 -128 112 -128
WIRE -64 -96 -64 -128
WIRE 32 -96 32 -128
WIRE -16 0 -16 -32
WIRE 80 0 80 -208
WIRE 80 0 -16 0
WIRE -240 160 -240 -128
WIRE -240 160 -384 160
WIRE -144 160 -240 160
WIRE -16 160 -16 0
WIRE -16 160 -64 160
WIRE 48 160 -16 160
WIRE 128 160 48 160
WIRE 464 160 464 -128
WIRE 464 160 384 160
WIRE 624 160 464 160
WIRE 784 160 624 160
WIRE -384 224 -384 160
WIRE -240 256 -240 160
WIRE -16 256 -16 160
WIRE 464 256 464 160
WIRE 784 256 784 160
WIRE -384 416 -384 304
WIRE -240 416 -240 320
WIRE -16 416 -16 320
WIRE 256 416 256 256
WIRE 464 416 464 320
WIRE 784 416 784 336
WIRE -176 848 -352 848
WIRE 352 848 -80 848
WIRE -176 880 -176 848
WIRE -80 880 -80 848
WIRE -352 1136 -352 848
WIRE -352 1136 -496 1136
WIRE -256 1136 -352 1136
WIRE -128 1136 -128 944
WIRE -128 1136 -176 1136
WIRE -64 1136 -128 1136
WIRE 16 1136 -64 1136
WIRE 352 1136 352 848
WIRE 352 1136 272 1136
WIRE 512 1136 352 1136
WIRE 672 1136 512 1136
WIRE -496 1200 -496 1136
WIRE -352 1232 -352 1136
WIRE -128 1232 -128 1136
WIRE 352 1232 352 1136
WIRE 672 1232 672 1136
WIRE -496 1392 -496 1280
WIRE -352 1392 -352 1296
WIRE -128 1392 -128 1296
WIRE 144 1392 144 1232
WIRE 352 1392 352 1296
WIRE 672 1392 672 1312
FLAG 256 416 0
FLAG -384 416 0
FLAG 624 160 out1
FLAG -240 416 0
FLAG -16 416 0
FLAG 464 416 0
FLAG 784 416 0
FLAG -384 160 in1
FLAG 48 160 lin1
FLAG 144 1392 0
FLAG -496 1392 0
FLAG 512 1136 out2
FLAG -352 1392 0
FLAG -128 1392 0
FLAG 352 1392 0
FLAG 672 1392 0
FLAG -496 1136 in2
FLAG -64 1136 lin2
SYMBOL Regulators\\7805 256 160 R0
SYMATTR InstName U1
SYMBOL voltage -384 208 R0
WINDOW 123 0 0 Left 2
WINDOW 39 0 0 Left 2
SYMATTR InstName V1
SYMATTR Value 16.8
SYMBOL pnp -64 -32 R270
SYMATTR InstName Q1
SYMATTR Value TIP42C
SYMBOL res -48 144 R90
WINDOW 0 0 56 VBottom 2
WINDOW 3 32 56 VTop 2
SYMATTR InstName Rin1
SYMATTR Value 6.8
SYMBOL cap -256 256 R0
SYMATTR InstName C1
SYMATTR Value 2.2µ
SYMBOL cap -32 256 R0
SYMATTR InstName Cin1
SYMATTR Value 2.2µ
SYMBOL cap 448 256 R0
SYMATTR InstName Cout1
SYMATTR Value 100n
SYMBOL res 768 240 R0
SYMATTR InstName RL1
SYMATTR Value 1.6
SYMBOL pnp -64 -208 R270
SYMATTR InstName Q3
SYMATTR Value TIP42C
SYMBOL Regulators\\7805 144 1136 R0
SYMATTR InstName U2
SYMBOL voltage -496 1184 R0
WINDOW 123 0 0 Left 2
WINDOW 39 0 0 Left 2
SYMATTR InstName V2
SYMATTR Value 16.8
SYMBOL pnp -176 944 R270
SYMATTR InstName Q2
SYMATTR Value TIP42C
SYMBOL res -160 1120 R90
WINDOW 0 0 56 VBottom 2
WINDOW 3 32 56 VTop 2
SYMATTR InstName Rin2
SYMATTR Value 10k
SYMBOL cap -368 1232 R0
SYMATTR InstName C2
SYMATTR Value 2200µ
SYMBOL cap -144 1232 R0
SYMATTR InstName Cin2
SYMATTR Value 10µ
SYMBOL cap 336 1232 R0
SYMATTR InstName Cout2
SYMATTR Value 100n
SYMBOL res 656 1216 R0
SYMATTR InstName RL2
SYMATTR Value 1.7
TEXT -416 440 Left 2 !.tran 0 1 100m 10u
